Circuit: * C:\Users\Den\Desktop\Projects\led_matrix\library\OPA1678IDR\Draft1.asc

Direct Newton iteration for .op point succeeded.
Semiconductor Device Operating Points:
                        --- Diodes ---
Name:  d:u1:_u1:2  d:u1:_u1:1
Model: u1:_u1:dvn  u1:_u1:dvn
Id:      1.00e-02    1.00e-02
Vd:      8.34e-01    8.34e-01
Req:     2.59e+00    2.59e+00
CAP:     0.00e+00    0.00e+00



Date: Wed Aug 20 09:13:53 2025
Total elapsed time: 0.060 seconds.

tnom = 27
temp = 27
method = trap
totiter = 5
traniter = 0
tranpoints = 0
accept = 0
rejected = 0
matrix size = 130
fillins = 134
solver = Normal
Matrix Compiler1:     803 opcodes
Matrix Compiler2: 13.06 KB object code size
